LAMMPS (23 Jun 2022 - Update 1)
Loaded 1 plugins from /home/ppiaggi/.conda/envs/deepmd-2.1.3/lib/deepmd_lmp
Loaded 0 plugins from
echo both

include		in.temp
variable	temperature equal 330.0
variable	tempDamp equal 0.1
include		in.pressure
variable        pressure equal 1.
variable        pressureDamp equal 1.0 # This is 1 ps
include		in.seed
variable        seed equal 745823

units		metal
atom_style	atomic
include		in.box
read_data       caco3.lammps-data
Reading data file ...
  orthogonal box = (0.12350269 0.12350269 0.12350269) to (35.801154 35.801154 35.801154)
  reading atoms ...
  4729 atoms
include 	in.setup
variable	out_freq equal 2000
variable	out_freq2 equal 2000

timestep	0.0005

neigh_modify    delay 10 every 1

include		in.deepmd
# This is a deepmd model

pair_style      none

thermo          2000
thermo_style 	custom step temp pe etotal epair emol press lx ly lz vol

restart 	2000 restart.lmp restart2.lmp

timer           timeout 47:55:00 every 1000
New timer settings: style=normal  mode=nosync  timeout=23:55:00

comm_modify 	cutoff	20.0

compute 	1 all rdf 200 1 3 cutoff 10.0
fix 		1 all ave/time 1 1 1 c_1[*] file CaO.rdf ave running mode vector
compute 	2 all rdf 200 1 4 cutoff 10.0
fix 		2 all ave/time 1 1 1 c_2[*] file CaH.rdf ave running mode vector
compute 	3 all rdf 200 3 3 cutoff 10.0
fix 		3 all ave/time 1 1 1 c_3[*] file OO.rdf ave running mode vector
compute 	4 all rdf 200 3 4 cutoff 10.0
fix 		4 all ave/time 1 1 1 c_4[*] file OH.rdf ave running mode vector

rerun           ../dump.water dump x y z
  update every 1 steps, delay 10 steps, check yes
Step          Temp          PotEng         TotEng         E_pair         E_mol          Press            Lx             Ly             Lz           Volume
0   0              0              0              0              0              0              35.704185      35.704185      35.704185      45515.296
Averages over the last 5001 of 10001 rows, steps 10000000 to 20000000:
Temp PotEng TotEng E_pair E_mol Press Lx Ly Lz Volume
0 0 0 0 0 0 35.787 35.787 35.787 45833.2
Loop time of 2708.16 on 1 procs for 10001 steps with 4729 atoms
