LAMMPS (23 Jun 2022 - Update 1)
Loaded 1 plugins from /home/ppiaggi/.conda/envs/deepmd-2.1.3/lib/deepmd_lmp
Loaded 0 plugins from
echo both

include		in.temp
variable	temperature equal 330.0
variable	tempDamp equal 0.1
include		in.pressure
variable        pressure equal 1.
variable        pressureDamp equal 1.0 # This is 1 ps
include		in.seed
variable        seed equal 10529

units		metal
atom_style	atomic
include		in.box
read_data       caco3.lammps-data
Reading data file ...
  orthogonal box = (0.042655683 0.042655683 0.042655683) to (53.696657 53.696657 53.696657)
  reading atoms ...
  15962 atoms
  reading velocities ...
  15962 velocities
include 	in.setup
variable	out_freq equal 1000
variable	out_freq2 equal 10000

timestep	0.0005

neigh_modify    delay 10 every 1

include		in.deepmd
# This is a deepmd model

pair_style 	deepmd ../../../../../iter-76/train-models/1/frozen_model_1_compressed.pb ../../../../../iter-76/train-models/2/frozen_model_2_compressed.pb ../../../../../iter-76/train-models/3/frozen_model_3_compressed.pb ../../../../../iter-76/train-models/4/frozen_model_4_compressed.pb out_file md.out out_freq 10000
Summary of lammps deepmd module ...
  >>> Info of deepmd-kit:
  installed to:       /home/ppiaggi/.conda/envs/deepmd-2.1.3
  source:             v2.1.3
  source branch:       HEAD
  source commit:      5a32c49e
  source commit at:   2022-07-01 09:52:58 +0800
  surpport model ver.:1.1
  build float prec:   double
  build with tf inc:  /home/ppiaggi/.conda/envs/deepmd-2.1.3/include;/home/ppiaggi/.conda/envs/deepmd-2.1.3/include
  build with tf lib:  /home/ppiaggi/.conda/envs/deepmd-2.1.3/lib/libtensorflow_cc.so;/home/ppiaggi/.conda/envs/deepmd-2.1.3/lib/libtensorflow_framework.so
  set tf intra_op_parallelism_threads: 909521204
  set tf inter_op_parallelism_threads: 842543920
  >>> Info of lammps module:
  use deepmd-kit at:  /home/ppiaggi/.conda/envs/deepmd-2.1.3pair_coeff	* *

thermo          1000
thermo_style 	custom step temp pe etotal epair emol press lx ly lz vol

restart 	1000 restart.lmp restart2.lmp

include         in.dump
dump            myDump all atom 10000 dump.water

timer           timeout 143:55:00 every 1000
New timer settings: style=normal  mode=nosync  timeout=23:55:00

fix             thermo_print all print 1000 "$(step) $(enthalpy) $(vol)" file thermo.txt screen no title "#step enthalpy vol"
fix		1 all plumed plumedfile plumed.dat outfile plumed.out
fix             3 all temp/csvr 330 330 0.1 10529
fix             4 all momentum 10000 linear 1 1 1 rescale

velocity 	all create 330 10529 dist gaussian

run             40000000 upto # 20. ns

CITE-CITE-CITE-CITE-CITE-CITE-CITE-CITE-CITE-CITE-CITE-CITE-CITE

Your simulation uses code contributions which should be cited:

- USER-DEEPMD package:

@article{Wang_ComputPhysCommun_2018_v228_p178,
  author = {Wang, Han and Zhang, Linfeng and Han, Jiequn and E, Weinan},
  doi = {10.1016/j.cpc.2018.03.016},
  url = {https://doi.org/10.1016/j.cpc.2018.03.016},
  year = 2018,
  month = {jul},
  publisher = {Elsevier {BV}},
  volume = 228,
  journal = {Comput. Phys. Commun.},
  title = {{DeePMD-kit: A deep learning package for many-body potential energy representation and molecular dynamics}},
  pages = {178--184}
}

CITE-CITE-CITE-CITE-CITE-CITE-CITE-CITE-CITE-CITE-CITE-CITE-CITE

Generated 0 of 6 mixed pair_coeff terms from geometric mixing rule
  update every 1 steps, delay 10 steps, check yes
Step          Temp          PotEng         TotEng         E_pair         E_mol          Press            Lx             Ly             Lz           Volume
0   330           -2488474.3     -2487793.5     -2488474.3      0             -119.51278      53.654001      53.654001      53.654001      154456.56
Averages over the last 11964 of 23927 rows, steps 11963000 to 23926000:
Temp PotEng TotEng E_pair E_mol Press Lx Ly Lz Volume
329.975 -2.48848e+06 -2.4878e+06 -2.48848e+06 0 51.7936 53.654 53.654 53.654 154457
Loop time of 518096 on 1 procs for 23926000 steps with 15962 atoms

write_data	data.final
System init for write_data ...
Generated 0 of 6 mixed pair_coeff terms from geometric mixing rule

write_restart   restart.lmp
System init for write_restart ...
Generated 0 of 6 mixed pair_coeff terms from geometric mixing rule
