LAMMPS (23 Jun 2022 - Update 1)
Loaded 1 plugins from /home/ppiaggi/.conda/envs/deepmd-2.1.3/lib/deepmd_lmp
Loaded 1 plugins from /home/ppiaggi/.conda/envs/deepmd-2.1.3/lib/deepmd_lmp
Loaded 0 plugins from
echo both

include		in.temp
variable	temperature equal 330.0
variable	tempDamp equal 0.1
include		in.pressure
variable        pressure equal 1.
variable        pressureDamp equal 1.0 # This is 1 ps
include		in.seed
variable        seed equal 745823

units		metal
atom_style	atomic
include		in.box
read_data       caco3.lammps-data
Reading data file ...
  orthogonal box = (0.12350269 0.12350269 0.12350269) to (35.801154 35.801154 35.801154)
  reading atoms ...
  4729 atoms
include 	in.setup
variable	out_freq equal 2000
variable	out_freq2 equal 2000

timestep	0.0005

neigh_modify    delay 10 every 1

include		in.deepmd
# This is a deepmd model

pair_style 	deepmd ../../../../iter-76/train-models/1/frozen_model_1_compressed.pb ../../../../iter-76/train-models/2/frozen_model_2_compressed.pb ../../../../iter-76/train-models/3/frozen_model_3_compressed.pb ../../../../iter-76/train-models/4/frozen_model_4_compressed.pb out_file md.out out_freq 2000
Summary of lammps deepmd module ...
  >>> Info of deepmd-kit:
  installed to:       /home/ppiaggi/.conda/envs/deepmd-2.1.3
  source:             v2.1.3
  source branch:       HEAD
  source commit:      5a32c49e
  source commit at:   2022-07-01 09:52:58 +0800
  surpport model ver.:1.1
  build float prec:   double
  build with tf inc:  /home/ppiaggi/.conda/envs/deepmd-2.1.3/include;/home/ppiaggi/.conda/envs/deepmd-2.1.3/include
  build with tf lib:  /home/ppiaggi/.conda/envs/deepmd-2.1.3/lib/libtensorflow_cc.so;/home/ppiaggi/.conda/envs/deepmd-2.1.3/lib/libtensorflow_framework.so
  set tf intra_op_parallelism_threads: 808859182
  set tf inter_op_parallelism_threads: 825768245
  >>> Info of lammps module:
  use deepmd-kit at:  /home/ppiaggi/.conda/envs/deepmd-2.1.3pair_coeff	* *

thermo          2000
thermo_style 	custom step temp pe etotal epair emol press lx ly lz vol

restart 	2000 restart.lmp restart2.lmp

timer           timeout 143:55:00 every 1000
New timer settings: style=normal  mode=nosync  timeout=23:55:00

# Equilibration

minimize	1.e-5 1.e-10 1000 10000

CITE-CITE-CITE-CITE-CITE-CITE-CITE-CITE-CITE-CITE-CITE-CITE-CITE

Your simulation uses code contributions which should be cited:

- USER-DEEPMD package:

@article{Wang_ComputPhysCommun_2018_v228_p178,
  author = {Wang, Han and Zhang, Linfeng and Han, Jiequn and E, Weinan},
  doi = {10.1016/j.cpc.2018.03.016},
  url = {https://doi.org/10.1016/j.cpc.2018.03.016},
  year = 2018,
  month = {jul},
  publisher = {Elsevier {BV}},
  volume = 228,
  journal = {Comput. Phys. Commun.},
  title = {{DeePMD-kit: A deep learning package for many-body potential energy representation and molecular dynamics}},
  pages = {178--184}
}

CITE-CITE-CITE-CITE-CITE-CITE-CITE-CITE-CITE-CITE-CITE-CITE-CITE

Generated 0 of 6 mixed pair_coeff terms from geometric mixing rule
  update every 1 steps, delay 0 steps, check yes
Step          Temp          PotEng         TotEng         E_pair         E_mol          Press            Lx             Ly             Lz           Volume
0   0             -737596.92     -737596.92     -737596.92      0             -3225.7491      35.677651      35.677651      35.677651      45413.896
Loop time of 1.81556 on 1 procs for 8 steps with 4729 atoms

Minimization stats:
  Stopping criterion = energy tolerance
  Energy initial, next-to-last, final =
  Force two-norm initial, final = 97.823563 18.215975
  Force max component initial, final = 5.9326085 3.2129941
  Final line search alpha, max atom move = 0.066639472 0.21411223
  Iterations, force evaluations = 8 16

fix             2 all nph iso 1 1 1
fix             3 all temp/csvr 330 330 0.1 745823
fix             4 all momentum 10000 linear 1 1 1 rescale

velocity 	all create 330 745823 dist gaussian

run             20000
Generated 0 of 6 mixed pair_coeff terms from geometric mixing rule
Step          Temp          PotEng         TotEng         E_pair         E_mol          Press            Lx             Ly             Lz           Volume
8   330           -737752.3      -737550.63     -737752.3       0             -253.02001      35.677651      35.677651      35.677651      45413.896
Averages over the last 6 of 12 rows, steps 12000 to 20008:
Temp PotEng TotEng E_pair E_mol Press Lx Ly Lz Volume
329.849 -737604 -737402 -737604 0 154.282 35.6821 35.6821 35.6821 45431.2
Loop time of 171.099 on 1 procs for 20000 steps with 4729 atoms

# Production

reset_timestep	0

include         in.dump
dump            myDump all atom 2000 dump.water
dump            myDumpDCD all dcd 2000 dump.dcd

fix             thermo_print all print 10 "$(step) $(enthalpy) $(vol)" file thermo.txt screen no title "#step enthalpy vol"

run             20000000 # 10. ns
Generated 0 of 6 mixed pair_coeff terms from geometric mixing rule
Step          Temp          PotEng         TotEng         E_pair         E_mol          Press            Lx             Ly             Lz           Volume
0   331.13075     -737605.77     -737403.4      -737605.77      0              620.08453      35.704185      35.704185      35.704185      45515.296
Averages over the last 5001 of 10001 rows, steps 10000000 to 20000000:
Temp PotEng TotEng E_pair E_mol Press Lx Ly Lz Volume
330.094 -737605 -737403 -737605 0 -3.31273 35.787 35.787 35.787 45833.2
Loop time of 170285 on 1 procs for 20000000 steps with 4729 atoms

write_data	data.final
System init for write_data ...
Generated 0 of 6 mixed pair_coeff terms from geometric mixing rule

write_restart   restart.lmp
System init for write_restart ...
Generated 0 of 6 mixed pair_coeff terms from geometric mixing rule
