LAMMPS (23 Jun 2022 - Update 1)
Loaded 1 plugins from /home/ppiaggi/.conda/envs/deepmd-2.1.3/lib/deepmd_lmp
Loaded 1 plugins from /home/ppiaggi/.conda/envs/deepmd-2.1.3/lib/deepmd_lmp
Loaded 0 plugins from
echo both

include		in.temp
variable	temperature equal 290.0
variable	tempDamp equal 0.1
include		in.pressure
variable        pressure equal 1.
variable        pressureDamp equal 1.0 # This is 1 ps
include		in.seed
variable        seed equal 6581

units		metal
atom_style	atomic
include		in.box
read_data       ../caco3.lammps-data
Reading data file ...
  orthogonal box = (0 0 2.9156274) to (39.846612 48.389119 59.084373)
  reading atoms ...
  10584 atoms
  reading velocities ...
  10584 velocities
include 	in.setup
variable	out_freq equal 100
variable	out_freq2 equal 1000

timestep	0.0005

neigh_modify    delay 10 every 1

include		in.deepmd
# This is a deepmd model

pair_style 	none
#pair_style 	deepmd ../../../../frozen_model_1_compressed.pb ../../../../frozen_model_2_compressed.pb ../../../../frozen_model_3_compressed.pb ../../../../frozen_model_4_compressed.pb out_file md.out out_freq 1000
#pair_coeff	* *

thermo          100
thermo_style 	custom step temp pe etotal epair emol press lx ly lz vol

restart 	100 restart.lmp restart2.lmp

comm_style  	tiled
balance 	1.1 rcb
Balancing ...

timer           timeout 55:00:00 every 1000
New timer settings: style=normal  mode=nosync  timeout=07:00:00

group 		typeCa type 1
576 atoms in group typeCa
group 		typeC type 2
576 atoms in group typeC
group 		typeO type 3
4296 atoms in group typeO
group 		typeH type 4
5136 atoms in group typeH

fix 		1 typeCa ave/histo 1 1 1 2.9156273815883083 59.08437261840291 1000 z file histoCa.txt ave running mode vector
fix 		2 typeC ave/histo 1 1 1 2.9156273815883083 59.08437261840291 1000 z file histoC.txt ave running mode vector
fix 		3 typeO ave/histo 1 1 1 2.9156273815883083 59.08437261840291 1000 z file histoO.txt ave running mode vector
fix 		4 typeH ave/histo 1 1 1 2.9156273815883083 59.08437261840291 1000 z file histoH.txt ave running mode vector

rerun 		../dump.water dump x y z
Step          Temp          PotEng         TotEng         E_pair         E_mol          Press            Lx             Ly             Lz           Volume
0   325.21816      0              444.88547      0              0              4387.6653      39.846612      48.389119      56.168745      108301.34
Averages over the last 1767 of 3533 rows, steps 3532000 to 7064000:
Temp PotEng TotEng E_pair E_mol Press Lx Ly Lz Volume
325.218 0 444.885 0 0 4356.85 39.8466 48.3891 56.5667 109069
Loop time of 49.1776 on 1 procs for 3533 steps with 10584 atoms
